BCL
                    3D
 Schrodinger Suite 2024-3.
  0  0  0     0  0            999 V3000
M  V30 BEGIN CTAB
M  V30 COUNTS 140 148 0 0 0
M  V30 BEGIN ATOM
M  V30 1 C  -21.8154 10.2933 14.9466 0
M  V30 2 C  -23.0069 11.1205 14.4277 0
M  V30 3 C  -24.3221 10.9834 15.2321 0 CFG=2
M  V30 4 C  -24.2190 11.5207 16.6574 0 CFG=2
M  V30 5 C  -24.3035 10.2478 17.4706 0
M  V30 6 C  -24.0464 10.2284 18.8704 0
M  V30 7 C  -24.0970 9.0793 19.7098 0
M  V30 8 C  -23.8397 9.1536 21.1377 0
M  V30 9 C  -24.0209 7.7920 21.6321 0
M  V30 10 C  -24.3473 6.9893 20.4813 0
M  V30 11 N  -24.3595 7.7989 19.4123 0 CHG=-1
M  V30 12 Mg -24.8840 7.1958 17.5765 0 CHG=2 RAD=3
M  V30 13 N  -24.6539 9.1625 16.7676 0
M  V30 14 C  -24.7367 9.5506 15.4778 0
M  V30 15 C  -25.1565 8.6880 14.4167 0
M  V30 16 C  -25.4790 7.3201 14.6116 0
M  V30 17 N  -25.4180 6.6077 15.7611 0 CHG=-1
M  V30 18 C  -25.7672 5.3678 15.5258 0
M  V30 19 C  -25.8460 4.1651 16.2232 0
M  V30 20 C  -26.3367 3.0368 15.3104 0 CFG=2
M  V30 21 C  -26.4368 3.7791 13.9450 0
M  V30 22 O  -26.7494 3.2422 12.8817 0
M  V30 23 C  -26.0797 5.1841 14.2151 0
M  V30 24 C  -25.9032 6.4343 13.5140 0
M  V30 25 C  -26.0298 6.7316 12.0357 0
M  V30 26 C  -27.7327 2.5051 15.6834 0
M  V30 27 O  -28.3987 2.9913 16.6005 0
M  V30 28 O  -28.1192 1.4751 14.9144 0
M  V30 29 C  -29.4072 0.9123 15.0982 0
M  V30 30 C  -25.4444 4.0425 17.6168 0
M  V30 31 N  -25.1495 5.1593 18.2887 0
M  V30 32 C  -25.0019 4.7323 19.5504 0
M  V30 33 C  -24.6146 5.5969 20.6145 0
M  V30 34 C  -25.3263 3.2550 19.7534 0 CFG=2
M  V30 35 C  -25.3126 2.7203 18.3149 0 CFG=2
M  V30 36 C  -23.9679 2.0422 17.9510 0
M  V30 37 C  -24.0127 0.5033 17.9743 0
M  V30 38 C  -24.6886 -0.0611 16.7276 0
M  V30 39 O  -24.1542 0.0251 15.6207 0
M  V30 40 O  -25.8958 -0.5927 16.9831 0
M  V30 41 C  -26.6625 -1.1643 15.9316 0
M  V30 42 C  -26.3565 -2.6407 15.7622 0
M  V30 43 C  -27.2325 -3.6601 15.8369 0
M  V30 44 C  -28.7277 -3.4945 16.0922 0
M  V30 45 C  -26.7680 -5.0978 15.6891 0
M  V30 46 C  -26.4365 -5.7305 17.0545 0
M  V30 47 C  -26.2042 -7.2519 17.0063 0
M  V30 48 C  -24.7618 -7.7164 16.6898 0 CFG=2
M  V30 49 C  -24.2342 -7.2479 15.3219 0
M  V30 50 C  -24.5652 -9.2410 16.8937 0
M  V30 51 C  -25.7222 -10.1798 16.4807 0
M  V30 52 C  -26.1143 -10.2084 14.9905 0
M  V30 53 C  -25.0602 -10.7694 14.0119 0 CFG=2
M  V30 54 C  -25.4140 -10.3423 12.5738 0
M  V30 55 C  -24.9319 -12.3108 14.1259 0
M  V30 56 C  -23.7165 -12.9312 13.4067 0
M  V30 57 C  -22.3643 -12.6336 14.0789 0
M  V30 58 C  -22.0786 -13.4182 15.3776 0
M  V30 59 C  -20.9079 -12.7799 16.1380 0
M  V30 60 C  -21.8004 -14.9061 15.1145 0
M  V30 61 C  -26.6987 3.0583 20.4197 0
M  V30 62 C  -23.9707 7.3081 23.0730 0
M  V30 63 C  -23.5749 10.3729 21.9526 0
M  V30 64 O  -24.1508 11.4472 21.7895 0
M  V30 65 C  -22.5034 10.2620 23.0294 0
M  V30 66 C  -25.3475 12.5022 17.0037 0
M  V30 67 H  -20.9339 10.4542 14.3261 0
M  V30 68 H  -22.0358 9.2278 14.9257 0
M  V30 69 H  -21.5510 10.5597 15.9682 0
M  V30 70 H  -22.7211 12.1712 14.3803 0
M  V30 71 H  -23.1983 10.8182 13.3957 0
M  V30 72 H  -25.1215 11.4904 14.6879 0
M  V30 73 H  -23.2556 12.0027 16.8380 0
M  V30 74 H  -23.7916 11.1805 19.3144 0
M  V30 75 H  -25.2154 9.0950 13.4181 0
M  V30 76 H  -25.6089 2.2304 15.2562 0
M  V30 77 H  -26.3495 5.8423 11.4955 0
M  V30 78 H  -25.0683 7.0491 11.6359 0
M  V30 79 H  -26.7561 7.5254 11.8689 0
M  V30 80 H  -29.5399 0.0608 14.4306 0
M  V30 81 H  -30.1821 1.6446 14.8764 0
M  V30 82 H  -29.5363 0.5663 16.1222 0
M  V30 83 H  -24.5426 5.1488 21.5968 0
M  V30 84 H  -24.5615 2.7775 20.3687 0
M  V30 85 H  -26.1665 2.0770 18.0993 0
M  V30 86 H  -23.6695 2.3544 16.9493 0
M  V30 87 H  -23.1641 2.4088 18.5959 0
M  V30 88 H  -22.9939 0.1129 18.0030 0
M  V30 89 H  -24.5118 0.1441 18.8752 0
M  V30 90 H  -27.7120 -1.0094 16.1818 0
M  V30 91 H  -26.4887 -0.6477 14.9834 0
M  V30 92 H  -25.3165 -2.8674 15.5661 0
M  V30 93 H  -29.2960 -4.1845 15.4645 0
M  V30 94 H  -29.0918 -2.4921 15.8665 0
M  V30 95 H  -28.9543 -3.7216 17.1368 0
M  V30 96 H  -27.5421 -5.6733 15.1776 0
M  V30 97 H  -25.9085 -5.1133 15.0249 0
M  V30 98 H  -25.5820 -5.2271 17.5080 0
M  V30 99 H  -27.2800 -5.5487 17.7205 0
M  V30 100 H  -26.4643 -7.6491 17.9904 0
M  V30 101 H  -26.9214 -7.6970 16.3150 0
M  V30 102 H  -24.1087 -7.2395 17.4234 0
M  V30 103 H  -24.9180 -7.4971 14.5071 0
M  V30 104 H  -23.2639 -7.6916 15.0936 0
M  V30 105 H  -24.0694 -6.1734 15.3270 0
M  V30 106 H  -23.6348 -9.5707 16.4296 0
M  V30 107 H  -24.4055 -9.4031 17.9606 0
M  V30 108 H  -25.4539 -11.1814 16.8053 0
M  V30 109 H  -26.6078 -9.9385 17.0681 0
M  V30 110 H  -27.0256 -10.7988 14.8927 0
M  V30 111 H  -26.3887 -9.2000 14.6909 0
M  V30 112 H  -24.1089 -10.2989 14.2583 0
M  V30 113 H  -26.3433 -10.8110 12.2378 0
M  V30 114 H  -24.6307 -10.6089 11.8628 0
M  V30 115 H  -25.5462 -9.2618 12.5015 0
M  V30 116 H  -24.9053 -12.6099 15.1721 0
M  V30 117 H  -25.8417 -12.7665 13.7338 0
M  V30 118 H  -23.8587 -14.0052 13.3324 0
M  V30 119 H  -23.6910 -12.5885 12.3738 0
M  V30 120 H  -21.5518 -12.8006 13.3712 0
M  V30 121 H  -22.3367 -11.5712 14.2955 0
M  V30 122 H  -22.9513 -13.3531 16.0277 0
M  V30 123 H  -20.0055 -12.7524 15.5267 0
M  V30 124 H  -20.6749 -13.3308 17.0497 0
M  V30 125 H  -21.1495 -11.7573 16.4320 0
M  V30 126 H  -20.9232 -15.0402 14.4820 0
M  V30 127 H  -22.6407 -15.4001 14.6289 0
M  V30 128 H  -21.6118 -15.4387 16.0453 0
M  V30 129 H  -26.7175 3.4997 21.4156 0
M  V30 130 H  -26.9362 1.9992 20.5204 0
M  V30 131 H  -27.4912 3.5245 19.8330 0
M  V30 132 H  -23.1108 6.6505 23.2226 0
M  V30 133 H  -24.8787 6.7479 23.3088 0
M  V30 134 H  -23.9089 8.1287 23.7873 0
M  V30 135 H  -21.7986 11.0886 22.9396 0
M  V30 136 H  -21.9498 9.3298 22.9352 0
M  V30 137 H  -22.9550 10.3057 24.0200 0
M  V30 138 H  -25.2724 12.8257 18.0430 0
M  V30 139 H  -26.3313 12.0482 16.8645 0
M  V30 140 H  -25.2985 13.3955 16.3774 0
M  V30 END ATOM
M  V30 BEGIN BOND
M  V30 1 1 1 2
M  V30 2 1 1 67
M  V30 3 1 1 68
M  V30 4 1 1 69
M  V30 5 1 2 3
M  V30 6 1 2 70
M  V30 7 1 2 71
M  V30 8 1 3 4
M  V30 9 1 3 14
M  V30 10 1 3 72
M  V30 11 1 4 5
M  V30 12 1 4 66
M  V30 13 1 4 73
M  V30 14 2 5 6
M  V30 15 1 5 13
M  V30 16 1 6 7
M  V30 17 1 6 74
M  V30 18 2 7 8
M  V30 19 1 7 11
M  V30 20 1 8 9
M  V30 21 1 8 63
M  V30 22 2 9 10
M  V30 23 1 9 62
M  V30 24 1 10 11
M  V30 25 1 10 33
M  V30 26 9 11 12
M  V30 27 9 13 12
M  V30 28 9 17 12
M  V30 29 9 31 12
M  V30 30 2 13 14
M  V30 31 1 14 15
M  V30 32 2 15 16
M  V30 33 1 15 75
M  V30 34 1 16 17
M  V30 35 1 16 24
M  V30 36 1 17 18
M  V30 37 2 18 19
M  V30 38 1 18 23
M  V30 39 1 19 20
M  V30 40 1 19 30
M  V30 41 1 20 21
M  V30 42 1 20 26
M  V30 43 1 20 76
M  V30 44 2 21 22
M  V30 45 1 21 23
M  V30 46 2 23 24
M  V30 47 1 24 25
M  V30 48 1 25 77
M  V30 49 1 25 78
M  V30 50 1 25 79
M  V30 51 2 26 27
M  V30 52 1 26 28
M  V30 53 1 28 29
M  V30 54 1 29 80
M  V30 55 1 29 81
M  V30 56 1 29 82
M  V30 57 2 30 31
M  V30 58 1 30 35
M  V30 59 1 31 32
M  V30 60 2 32 33
M  V30 61 1 32 34
M  V30 62 1 33 83
M  V30 63 1 34 35
M  V30 64 1 34 61
M  V30 65 1 34 84
M  V30 66 1 35 36
M  V30 67 1 35 85
M  V30 68 1 36 37
M  V30 69 1 36 86
M  V30 70 1 36 87
M  V30 71 1 37 38
M  V30 72 1 37 88
M  V30 73 1 37 89
M  V30 74 2 38 39
M  V30 75 1 38 40
M  V30 76 1 40 41
M  V30 77 1 41 42
M  V30 78 1 41 90
M  V30 79 1 41 91
M  V30 80 2 42 43
M  V30 81 1 42 92
M  V30 82 1 43 44
M  V30 83 1 43 45
M  V30 84 1 44 93
M  V30 85 1 44 94
M  V30 86 1 44 95
M  V30 87 1 45 46
M  V30 88 1 45 96
M  V30 89 1 45 97
M  V30 90 1 46 47
M  V30 91 1 46 98
M  V30 92 1 46 99
M  V30 93 1 47 48
M  V30 94 1 47 100
M  V30 95 1 47 101
M  V30 96 1 48 49
M  V30 97 1 48 50
M  V30 98 1 48 102
M  V30 99 1 49 103
M  V30 100 1 49 104
M  V30 101 1 49 105
M  V30 102 1 50 51
M  V30 103 1 50 106
M  V30 104 1 50 107
M  V30 105 1 51 52
M  V30 106 1 51 108
M  V30 107 1 51 109
M  V30 108 1 52 53
M  V30 109 1 52 110
M  V30 110 1 52 111
M  V30 111 1 53 54
M  V30 112 1 53 55
M  V30 113 1 53 112
M  V30 114 1 54 113
M  V30 115 1 54 114
M  V30 116 1 54 115
M  V30 117 1 55 56
M  V30 118 1 55 116
M  V30 119 1 55 117
M  V30 120 1 56 57
M  V30 121 1 56 118
M  V30 122 1 56 119
M  V30 123 1 57 58
M  V30 124 1 57 120
M  V30 125 1 57 121
M  V30 126 1 58 59
M  V30 127 1 58 60
M  V30 128 1 58 122
M  V30 129 1 59 123
M  V30 130 1 59 124
M  V30 131 1 59 125
M  V30 132 1 60 126
M  V30 133 1 60 127
M  V30 134 1 60 128
M  V30 135 1 61 129
M  V30 136 1 61 130
M  V30 137 1 61 131
M  V30 138 1 62 132
M  V30 139 1 62 133
M  V30 140 1 62 134
M  V30 141 2 63 64
M  V30 142 1 63 65
M  V30 143 1 65 135
M  V30 144 1 65 136
M  V30 145 1 65 137
M  V30 146 1 66 138
M  V30 147 1 66 139
M  V30 148 1 66 140
M  V30 END BOND
M  V30 END CTAB
M  END
> <i_epik_Tot_Q>
0

> <i_epik_Tot_abs_Q>
4

> <i_f3d_flags>
0

> <i_glide_XP_PoseRank>
1

> <i_i_glide_confnum>
1

> <i_i_glide_lignum>
1

> <i_i_glide_posenum>
4

> <i_i_glide_rotatable_bonds>
22

> <i_lp_mmshare_version>
67138

> <i_m_source_file_index>
1

> <b_lp_Chiralities_Consistent>
1

> <r_epik_Charging_Adjusted_Penalty>
0.20303

> <r_epik_Ionization_Penalty>
0.0061

> <r_epik_Ionization_Penalty_Charging>
0

> <r_epik_Ionization_Penalty_Neutral>
0.0061

> <r_epik_State_Penalty>
0.203

> <r_glide_XP_GScore>
-10.2521

> <r_glide_XP_HBond>
0

> <r_i_docking_score>
-10.0491

> <r_i_glide_ecoul>
-1.13588

> <r_i_glide_eff_state_penalty>
0.203

> <r_i_glide_einternal>
15.4057

> <r_i_glide_emodel>
-95.5639

> <r_i_glide_energy>
-64.682

> <r_i_glide_evdw>
-63.5461

> <r_i_glide_gscore>
-10.2521

> <r_i_glide_ligand_efficiency>
-0.152259

> <r_i_glide_ligand_efficiency_ln>
-1.93637

> <r_i_glide_ligand_efficiency_sa>
-0.615314

> <r_lp_Energy>
154.3

> <r_lp_tautomer_probability>
0.99995

> <s_epik_Chemistry_Notes>
This compound has an ester and may undergo hydrolysis at high or low pH.

> <s_epik_cmdline>
J2VwaWtfcHl0aG9uJywgJy1waHQnLCAnMS4wJywgJy1waCcsICc3LjAnLCAnLXRuJywgJzgnLCAnLW1hJywgJzIwMCcsICctaW1hZScsICc8aW5maWxlLm1hZT4nLCAnLW9tYWUnLCAnPG91dGZpbGUubWFlPic=

> <s_epik_input>
W0NIM11bQ0gyXVtDQEhdKFtDQEhdMVtDSDNdKWMobjIpW2NIXWMoW24tXTMpYyhbQ0gzXSljKEMoPU8pW0NAQEhdNEMoPU8pT1tDSDNdKWMzYzRjKG5jNVtjSF1jKFtuLV02KWMoW0NIM10pYyhjNltjSF1jMTIpQyg9TylbQ0gzXSlbQ0BIXShbQ0BASF01W0NIM10pW0NIMl1bQ0gyXUMoPU8pT1tDSDJdL1tDSF09QyhcW0NIM10pW0NIMl1bQ0gyXVtDSDJdW0NASF0oW0NIM10pW0NIMl1bQ0gyXVtDSDJdW0NASF0oW0NIM10pW0NIMl1bQ0gyXVtDSDJdW0NIXShbQ0gzXSlbQ0gzXS5bTWcrMl0=

> <s_i_glide_gridfile>
grid

> <s_lp_Force_Field>
OPLS_2005

> <s_lp_Variant>
/scicore/web/cameo/cameo/CAMEO_predictors/Baseline3D_Glide/scratch_area/2025-07-26/tmppglinn5s/1pz008qi4p.smi:1-1

> <s_m_source_file>
/scicore/web/cameo/cameo/CAMEO_predictors/Baseline3D_Glide/scratch_area/2025-07-26/tmppglinn5s/1pz008qi4p.smi

$$$$
